*NODE
1, -0.050000, -0.040000, 0.000000
2, 0.040000, -0.040000, 0.000000
3, 0.040000, -0.040000, 0.012000
4, -0.050000, -0.040000, 0.012000
5, -0.025000, 0.000000, 0.000000
6, 0.025000, 0.000000, 0.000000
7, -0.050000, 0.040000, 0.000000
8, -0.060000, 0.030000, 0.000000
9, 0.040000, 0.040000, 0.000000
10, 0.060000, 0.020000, 0.000000
11, 0.060000, -0.020000, 0.000000
12, -0.060000, -0.030000, 0.000000
13, -0.060000, -0.030000, 0.012000
14, -0.025000, 0.000000, 0.012000
15, 0.025000, 0.000000, 0.012000
16, -0.050000, 0.040000, 0.012000
17, -0.060000, 0.030000, 0.012000
18, 0.060000, -0.020000, 0.012000
19, 0.060000, 0.020000, 0.012000
20, 0.040000, 0.040000, 0.012000
** ... 6774 like lines cut
*ELEMENT,TYPE=C3D4
13737,2376,2436,2602,6191
13738,1831,3141,1830,414
13739,4906,2754,3651,4905
13740,5527,5517,3555,5655
13741,5554,1480,1482,1481
13742,1876,4051,4415,3361
13743,2346,2220,2235,5657
13744,5802,5017,1992,5914
13745,6486,6391,5546,6778
13746,2499,2396,2551,5012
13747,5282,1381,6743,6412
13748,868,1056,1155,5545
13749,3882,5621,5622,4057
13750,5393,2774,5391,3898
13751,1809,2749,1731,393
13752,3720,3939,3751,4966
13753,3695,4767,3750,5330
13754,2117,1745,1712,5944
13755,1809,2749,393,2756
13756,4347,3799,4887,4888
** ... 29249 like lines cut
*MATERIAL,NAME=Carbon steel(C>_EQ_0.3%)
*ELASTIC
2.02E+11, 0.3
*MATERIAL,NAME=Carbon steel(C<_EQ_0.3%)
*ELASTIC
2.03E+11, 0.3
*MATERIAL,NAME=Aluminum 
*ELASTIC
6.89E+10, 0.3
*MATERIAL,NAME=Titanium
*ELASTIC
1.07E+11, 0.3
*ELSET,ELSET=_P_solid_M_Aluminum ,GENERATE
13737,43005
*SOLID SECTION,ELSET=_P_solid_M_Aluminum ,MATERIAL=Aluminum 
*STEP
*STATIC
*BOUNDARY
8,1,3
12,1,3
13,1,3
17,1,3
259,1,3
260,1,3
261,1,3
262,1,3
263,1,3
264,1,3
265,1,3
266,1,3
267,1,3
268,1,3
269,1,3
270,1,3
271,1,3
272,1,3
273,1,3
274,1,3
** ... 136 like lines cut
*CLOAD
3036,1,0.000E+00
3036,2,-1.000E+01
3036,3,0.000E+00
*NODE FILE
U
*EL FILE
S
*END STEP
